* SPICE3 file created from sbcs5v0.ext - technology: sky130A

.subckt sbcs5v0 io vdda vssa x
X0 a_3280_6120# p2 a_2720_6120# vdda sky130_fd_pr__pfet_g5v0d10v5 ad=6e+11p pd=2.2e+06u as=8e+11p ps=3.6e+06u w=1e+06u l=2e+06u
X1 a_3920_3840# n a_3280_3840# vssa sky130_fd_pr__nfet_g5v0d10v5 ad=6e+11p pd=2.2e+06u as=6e+11p ps=2.2e+06u w=1e+06u l=2e+06u
X2 a_3280_n7320# p0 a_2720_n7320# vdda sky130_fd_pr__pfet_g5v0d10v5 ad=6e+11p pd=2.2e+06u as=8e+11p ps=3.6e+06u w=1e+06u l=2e+06u
X3 vdda p0 a_400_n7320# vdda sky130_fd_pr__pfet_g5v0d10v5 ad=7e+11p pd=2.9e+06u as=6e+11p ps=2.2e+06u w=1e+06u l=2e+06u
X4 x p2 a_14240_2280# vdda sky130_fd_pr__pfet_g5v0d10v5 ad=6e+11p pd=2.2e+06u as=8e+11p ps=3.6e+06u w=1e+06u l=2e+06u
X5 a_14800_0# x x vssa sky130_fd_pr__nfet_g5v0d10v5 ad=6e+11p pd=2.2e+06u as=8e+11p ps=3.6e+06u w=1e+06u l=2e+06u
X6 a_9680_0# n a_9040_0# vssa sky130_fd_pr__nfet_g5v0d10v5 ad=6e+11p pd=2.2e+06u as=6e+11p ps=2.2e+06u w=1e+06u l=2e+06u
X7 a_4560_0# y z vssa sky130_fd_pr__nfet_g5v0d10v5 ad=6e+11p pd=2.2e+06u as=6e+11p ps=2.2e+06u w=1e+06u l=2e+06u
X8 a_6800_n760# n a_6160_n760# vssa sky130_fd_pr__nfet_g5v0d10v5 ad=6e+11p pd=2.2e+06u as=6e+11p ps=2.2e+06u w=1e+06u l=2e+06u
X9 a_13200_2720# p1 vdda vdda sky130_fd_pr__pfet_g5v0d10v5 ad=6e+11p pd=2.2e+06u as=7e+11p ps=2.9e+06u w=1e+06u l=2e+06u
X10 x p2 a_n160_n3480# vdda sky130_fd_pr__pfet_g5v0d10v5 ad=6e+11p pd=2.2e+06u as=8e+11p ps=3.6e+06u w=1e+06u l=2e+06u
X11 a_14800_9960# p2 a_14240_9960# vdda sky130_fd_pr__pfet_g5v0d10v5 ad=6e+11p pd=2.2e+06u as=8e+11p ps=3.6e+06u w=1e+06u l=2e+06u
X12 n s p1 vssa sky130_fd_pr__nfet_g5v0d10v5 ad=7.42857e+11p pd=3.2e+06u as=6.22222e+11p ps=2.35556e+06u w=1e+06u l=2e+06u
X13 a_4560_6560# p0 vdda vdda sky130_fd_pr__pfet_g5v0d10v5 ad=6e+11p pd=2.2e+06u as=7e+11p ps=2.9e+06u w=1e+06u l=2e+06u
X14 x x a_1680_n760# vssa sky130_fd_pr__nfet_g5v0d10v5 ad=8e+11p pd=3.6e+06u as=6e+11p ps=2.2e+06u w=1e+06u l=2e+06u
X15 a_15440_n4600# y a_14800_n4600# vssa sky130_fd_pr__nfet_g5v0d10v5 ad=6e+11p pd=2.2e+06u as=6e+11p ps=2.2e+06u w=1e+06u l=2e+06u
X16 a_10320_n4600# n p2 vssa sky130_fd_pr__nfet_g5v0d10v5 ad=6e+11p pd=2.2e+06u as=6e+11p ps=2.2e+06u w=1e+06u l=2e+06u
X17 vdda p1 a_3280_n3480# vdda sky130_fd_pr__pfet_g5v0d10v5 ad=7e+11p pd=2.9e+06u as=6e+11p ps=2.2e+06u w=1e+06u l=2e+06u
X18 a_n960_n880# a_n960_n880# vssa vssa sky130_fd_pr__nfet_g5v0d10v5 ad=8e+11p pd=3.6e+06u as=8e+11p ps=3.6e+06u w=1e+06u l=2e+06u
X19 a_3280_2720# p1 a_2720_2280# vdda sky130_fd_pr__pfet_g5v0d10v5 ad=6e+11p pd=2.2e+06u as=8e+11p ps=3.6e+06u w=1e+06u l=2e+06u
X20 a_1040_2280# p2 x vdda sky130_fd_pr__pfet_g5v0d10v5 ad=6e+11p pd=2.2e+06u as=6e+11p ps=2.2e+06u w=1e+06u l=2e+06u
X21 a_14800_3840# y p0 vssa sky130_fd_pr__nfet_g5v0d10v5 ad=6e+11p pd=2.2e+06u as=8e+11p ps=3.6e+06u w=1e+06u l=2e+06u
X22 p1 p2 a_3280_6120# vdda sky130_fd_pr__pfet_g5v0d10v5 ad=6e+11p pd=2.2e+06u as=6e+11p ps=2.2e+06u w=1e+06u l=2e+06u
X23 a_9680_10400# s a_9040_10400# vdda sky130_fd_pr__pfet_g5v0d10v5 ad=6e+11p pd=2.2e+06u as=6e+11p ps=2.2e+06u w=1e+06u l=2e+06u
X24 io p2 a_400_9960# vdda sky130_fd_pr__pfet_g5v0d10v5 ad=6e+11p pd=2.2e+06u as=6e+11p ps=2.2e+06u w=1e+06u l=2e+06u
X25 s n a_7440_n8440# vssa sky130_fd_pr__nfet_g5v0d10v5 ad=8e+11p pd=3.6e+06u as=6e+11p ps=2.2e+06u w=1e+06u l=2e+06u
X26 a_1680_n7320# p0 vdda vdda sky130_fd_pr__pfet_g5v0d10v5 ad=6e+11p pd=2.2e+06u as=7e+11p ps=2.9e+06u w=1e+06u l=2e+06u
X27 p1 s a_1040_7680# vssa sky130_fd_pr__nfet_g5v0d10v5 ad=6.22222e+11p pd=2.35556e+06u as=6e+11p ps=2.2e+06u w=1e+06u l=2e+06u
X28 a_8080_n3480# p1 a_7440_n3480# vdda sky130_fd_pr__pfet_g5v0d10v5 ad=8e+11p pd=3.6e+06u as=6e+11p ps=2.2e+06u w=1e+06u l=2e+06u
X29 a_13200_n760# x z vssa sky130_fd_pr__nfet_g5v0d10v5 ad=6e+11p pd=2.2e+06u as=6e+11p ps=2.2e+06u w=1e+06u l=2e+06u
X30 a_1040_3840# y a_400_3840# vssa sky130_fd_pr__nfet_g5v0d10v5 ad=6e+11p pd=2.2e+06u as=6e+11p ps=2.2e+06u w=1e+06u l=2e+06u
X31 vdda p0 a_14800_6560# vdda sky130_fd_pr__pfet_g5v0d10v5 ad=7e+11p pd=2.9e+06u as=6e+11p ps=2.2e+06u w=1e+06u l=2e+06u
X32 a_9040_n6880# p2 p2 vdda sky130_fd_pr__pfet_g5v0d10v5 ad=6e+11p pd=2.2e+06u as=8e+11p ps=3.6e+06u w=1e+06u l=2e+06u
X33 a_3280_0# x vssa vssa sky130_fd_pr__nfet_g5v0d10v5 ad=6e+11p pd=2.2e+06u as=8e+11p ps=3.6e+06u w=1e+06u l=2e+06u
X34 vdda p2 a_10320_6560# vdda sky130_fd_pr__pfet_g5v0d10v5 ad=7e+11p pd=2.9e+06u as=6e+11p ps=2.2e+06u w=1e+06u l=2e+06u
X35 a_11920_10400# s vdda vdda sky130_fd_pr__pfet_g5v0d10v5 ad=6e+11p pd=2.2e+06u as=7e+11p ps=2.9e+06u w=1e+06u l=2e+06u
X36 a_9040_7680# n s vssa sky130_fd_pr__nfet_g5v0d10v5 ad=6e+11p pd=2.2e+06u as=8e+11p ps=3.6e+06u w=1e+06u l=2e+06u
X37 a_3280_n760# x vssa vssa sky130_fd_pr__nfet_g5v0d10v5 ad=6e+11p pd=2.2e+06u as=8e+11p ps=3.6e+06u w=1e+06u l=2e+06u
X38 vdda p1 a_3280_2720# vdda sky130_fd_pr__pfet_g5v0d10v5 ad=7e+11p pd=2.9e+06u as=6e+11p ps=2.2e+06u w=1e+06u l=2e+06u
X39 a_14800_6120# p2 a_14240_6120# vdda sky130_fd_pr__pfet_g5v0d10v5 ad=6e+11p pd=2.2e+06u as=8e+11p ps=3.6e+06u w=1e+06u l=2e+06u
X40 n s p1 vssa sky130_fd_pr__nfet_g5v0d10v5 ad=7.42857e+11p pd=3.2e+06u as=6.22222e+11p ps=2.35556e+06u w=1e+06u l=2e+06u
X41 a_2320_n7320# p2 a_1680_n6880# vdda sky130_fd_pr__pfet_g5v0d10v5 ad=8e+11p pd=3.6e+06u as=6e+11p ps=2.2e+06u w=1e+06u l=2e+06u
X42 a_15440_n8440# s p1 vssa sky130_fd_pr__nfet_g5v0d10v5 ad=6e+11p pd=2.2e+06u as=6.22222e+11p ps=2.35556e+06u w=1e+06u l=2e+06u
X43 a_10320_n8440# n a_9680_n8440# vssa sky130_fd_pr__nfet_g5v0d10v5 ad=6e+11p pd=2.2e+06u as=6e+11p ps=2.2e+06u w=1e+06u l=2e+06u
X44 vdda p0 a_3280_n7320# vdda sky130_fd_pr__pfet_g5v0d10v5 ad=7e+11p pd=2.9e+06u as=6e+11p ps=2.2e+06u w=1e+06u l=2e+06u
X45 p0 p2 a_400_6120# vdda sky130_fd_pr__pfet_g5v0d10v5 ad=6e+11p pd=2.2e+06u as=6e+11p ps=2.2e+06u w=1e+06u l=2e+06u
X46 a_16080_10400# p1 vdda vdda sky130_fd_pr__pfet_g5v0d10v5 ad=6e+11p pd=2.2e+06u as=7e+11p ps=2.9e+06u w=1e+06u l=2e+06u
X47 a_15440_n3480# p1 vdda vdda sky130_fd_pr__pfet_g5v0d10v5 ad=6e+11p pd=2.2e+06u as=7e+11p ps=2.9e+06u w=1e+06u l=2e+06u
X48 a_7440_n6880# p2 a_6800_n6880# vdda sky130_fd_pr__pfet_g5v0d10v5 ad=6e+11p pd=2.2e+06u as=6e+11p ps=2.2e+06u w=1e+06u l=2e+06u
X49 a_10320_n3480# p1 vdda vdda sky130_fd_pr__pfet_g5v0d10v5 ad=6e+11p pd=2.2e+06u as=7e+11p ps=2.9e+06u w=1e+06u l=2e+06u
X50 vdda p1 a_14240_2280# vdda sky130_fd_pr__pfet_g5v0d10v5 ad=7e+11p pd=2.9e+06u as=8e+11p ps=3.6e+06u w=1e+06u l=2e+06u
X51 a_9040_n3040# p2 a_8480_n3480# vdda sky130_fd_pr__pfet_g5v0d10v5 ad=6e+11p pd=2.2e+06u as=8e+11p ps=3.6e+06u w=1e+06u l=2e+06u
X52 a_11920_2280# p2 a_11360_2280# vdda sky130_fd_pr__pfet_g5v0d10v5 ad=6e+11p pd=2.2e+06u as=8e+11p ps=3.6e+06u w=1e+06u l=2e+06u
X53 vdda s a_4560_10400# vdda sky130_fd_pr__pfet_g5v0d10v5 ad=7e+11p pd=2.9e+06u as=6e+11p ps=2.2e+06u w=1e+06u l=2e+06u
X54 z x a_3280_n760# vssa sky130_fd_pr__nfet_g5v0d10v5 ad=6e+11p pd=2.2e+06u as=6e+11p ps=2.2e+06u w=1e+06u l=2e+06u
X55 n s p1 vssa sky130_fd_pr__nfet_g5v0d10v5 ad=7.42857e+11p pd=3.2e+06u as=6.22222e+11p ps=2.35556e+06u w=1e+06u l=2e+06u
X56 p2 p2 a_7440_n7320# vdda sky130_fd_pr__pfet_g5v0d10v5 ad=8e+11p pd=3.6e+06u as=6e+11p ps=2.2e+06u w=1e+06u l=2e+06u
X57 a_11920_9960# s vdda vdda sky130_fd_pr__pfet_g5v0d10v5 ad=6e+11p pd=2.2e+06u as=7e+11p ps=2.9e+06u w=1e+06u l=2e+06u
X58 a_1680_6560# p0 vdda vdda sky130_fd_pr__pfet_g5v0d10v5 ad=6e+11p pd=2.2e+06u as=7e+11p ps=2.9e+06u w=1e+06u l=2e+06u
X59 a_6160_n4600# n vssa vssa sky130_fd_pr__nfet_g5v0d10v5 ad=6e+11p pd=2.2e+06u as=8e+11p ps=3.6e+06u w=1e+06u l=2e+06u
X60 a_1040_2280# p1 vdda vdda sky130_fd_pr__pfet_g5v0d10v5 ad=6e+11p pd=2.2e+06u as=7e+11p ps=2.9e+06u w=1e+06u l=2e+06u
X61 y y a_4560_0# vssa sky130_fd_pr__nfet_g5v0d10v5 ad=8e+11p pd=3.6e+06u as=6e+11p ps=2.2e+06u w=1e+06u l=2e+06u
X62 a_10320_0# n a_9680_0# vssa sky130_fd_pr__nfet_g5v0d10v5 ad=6e+11p pd=2.2e+06u as=6e+11p ps=2.2e+06u w=1e+06u l=2e+06u
X63 a_11920_3840# n p1 vssa sky130_fd_pr__nfet_g5v0d10v5 ad=6e+11p pd=2.2e+06u as=6.22222e+11p ps=2.35556e+06u w=1e+06u l=2e+06u
X64 a_2320_n3480# p2 x vdda sky130_fd_pr__pfet_g5v0d10v5 ad=8e+11p pd=3.6e+06u as=6e+11p ps=2.2e+06u w=1e+06u l=2e+06u
X65 a_9040_6560# p2 p2 vdda sky130_fd_pr__pfet_g5v0d10v5 ad=6e+11p pd=2.2e+06u as=8e+11p ps=3.6e+06u w=1e+06u l=2e+06u
X66 a_6800_n10720# s a_6160_n10720# vdda sky130_fd_pr__pfet_g5v0d10v5 ad=6e+11p pd=2.2e+06u as=6e+11p ps=2.2e+06u w=1e+06u l=2e+06u
X67 a_14800_n760# x x vssa sky130_fd_pr__nfet_g5v0d10v5 ad=6e+11p pd=2.2e+06u as=8e+11p ps=3.6e+06u w=1e+06u l=2e+06u
X68 a_7440_n3040# p2 n vdda sky130_fd_pr__pfet_g5v0d10v5 ad=6e+11p pd=2.2e+06u as=6e+11p ps=2.2e+06u w=1e+06u l=2e+06u
X69 a_n960_9840# a_n960_9840# vdda vdda sky130_fd_pr__pfet_g5v0d10v5 ad=8e+11p pd=3.6e+06u as=7e+11p ps=2.9e+06u w=1e+06u l=2e+06u
X70 a_13840_n7320# p2 a_13200_n6880# vdda sky130_fd_pr__pfet_g5v0d10v5 ad=8e+11p pd=3.6e+06u as=6e+11p ps=2.2e+06u w=1e+06u l=2e+06u
X71 a_9680_n11160# s a_9040_n11160# vdda sky130_fd_pr__pfet_g5v0d10v5 ad=6e+11p pd=2.2e+06u as=6e+11p ps=2.2e+06u w=1e+06u l=2e+06u
X72 vdda p0 a_11920_6560# vdda sky130_fd_pr__pfet_g5v0d10v5 ad=7e+11p pd=2.9e+06u as=6e+11p ps=2.2e+06u w=1e+06u l=2e+06u
X73 vdda p0 a_14800_n7320# vdda sky130_fd_pr__pfet_g5v0d10v5 ad=7e+11p pd=2.9e+06u as=6e+11p ps=2.2e+06u w=1e+06u l=2e+06u
X74 a_10320_n7320# p2 a_9680_n7320# vdda sky130_fd_pr__pfet_g5v0d10v5 ad=6e+11p pd=2.2e+06u as=6e+11p ps=2.2e+06u w=1e+06u l=2e+06u
X75 a_14800_n11160# p1 a_14240_n11160# vdda sky130_fd_pr__pfet_g5v0d10v5 ad=6e+11p pd=2.2e+06u as=8e+11p ps=3.6e+06u w=1e+06u l=2e+06u
X76 a_4560_n4600# n a_3920_n4600# vssa sky130_fd_pr__nfet_g5v0d10v5 ad=6e+11p pd=2.2e+06u as=6e+11p ps=2.2e+06u w=1e+06u l=2e+06u
X77 a_6160_7680# n vssa vssa sky130_fd_pr__nfet_g5v0d10v5 ad=6e+11p pd=2.2e+06u as=8e+11p ps=3.6e+06u w=1e+06u l=2e+06u
X78 z x a_400_n760# vssa sky130_fd_pr__nfet_g5v0d10v5 ad=6e+11p pd=2.2e+06u as=6e+11p ps=2.2e+06u w=1e+06u l=2e+06u
X79 a_10320_n10720# s a_9680_n10720# vdda sky130_fd_pr__pfet_g5v0d10v5 ad=6e+11p pd=2.2e+06u as=6e+11p ps=2.2e+06u w=1e+06u l=2e+06u
X80 vssa n a_10320_0# vssa sky130_fd_pr__nfet_g5v0d10v5 ad=8e+11p pd=3.6e+06u as=6e+11p ps=2.2e+06u w=1e+06u l=2e+06u
X81 a_16080_0# x z vssa sky130_fd_pr__nfet_g5v0d10v5 ad=6e+11p pd=2.2e+06u as=6e+11p ps=2.2e+06u w=1e+06u l=2e+06u
X82 a_11920_6120# p2 a_11360_6120# vdda sky130_fd_pr__pfet_g5v0d10v5 ad=6e+11p pd=2.2e+06u as=8e+11p ps=3.6e+06u w=1e+06u l=2e+06u
X83 a_16720_9960# p1 a_16080_10400# vdda sky130_fd_pr__pfet_g5v0d10v5 ad=8e+11p pd=3.6e+06u as=6e+11p ps=2.2e+06u w=1e+06u l=2e+06u
X84 a_3920_n10720# s a_3280_n10720# vdda sky130_fd_pr__pfet_g5v0d10v5 ad=6e+11p pd=2.2e+06u as=6e+11p ps=2.2e+06u w=1e+06u l=2e+06u
X85 a_5200_6120# p0 a_4560_6560# vdda sky130_fd_pr__pfet_g5v0d10v5 ad=8e+11p pd=3.6e+06u as=6e+11p ps=2.2e+06u w=1e+06u l=2e+06u
X86 a_6160_n8440# n vssa vssa sky130_fd_pr__nfet_g5v0d10v5 ad=6e+11p pd=2.2e+06u as=8e+11p ps=3.6e+06u w=1e+06u l=2e+06u
X87 vssa a_17120_n4600# a_17120_n4600# vssa sky130_fd_pr__nfet_g5v0d10v5 ad=8e+11p pd=3.6e+06u as=8e+11p ps=3.6e+06u w=1e+06u l=2e+06u
X88 a_6160_n3480# p1 a_5600_n3480# vdda sky130_fd_pr__pfet_g5v0d10v5 ad=6e+11p pd=2.2e+06u as=8e+11p ps=3.6e+06u w=1e+06u l=2e+06u
X89 a_11920_n11160# s vdda vdda sky130_fd_pr__pfet_g5v0d10v5 ad=6e+11p pd=2.2e+06u as=7e+11p ps=2.9e+06u w=1e+06u l=2e+06u
X90 a_13840_n3480# p2 a_13200_n3040# vdda sky130_fd_pr__pfet_g5v0d10v5 ad=8e+11p pd=3.6e+06u as=6e+11p ps=2.2e+06u w=1e+06u l=2e+06u
X91 a_11920_2720# p1 a_11360_2280# vdda sky130_fd_pr__pfet_g5v0d10v5 ad=6e+11p pd=2.2e+06u as=8e+11p ps=3.6e+06u w=1e+06u l=2e+06u
X92 a_6800_7680# n a_6160_7680# vssa sky130_fd_pr__nfet_g5v0d10v5 ad=6e+11p pd=2.2e+06u as=6e+11p ps=2.2e+06u w=1e+06u l=2e+06u
X93 a_11920_0# y y vssa sky130_fd_pr__nfet_g5v0d10v5 ad=6e+11p pd=2.2e+06u as=8e+11p ps=3.6e+06u w=1e+06u l=2e+06u
X94 a_1680_0# x z vssa sky130_fd_pr__nfet_g5v0d10v5 ad=6e+11p pd=2.2e+06u as=6e+11p ps=2.2e+06u w=1e+06u l=2e+06u
X95 p2 n a_6160_n4600# vssa sky130_fd_pr__nfet_g5v0d10v5 ad=6e+11p pd=2.2e+06u as=6e+11p ps=2.2e+06u w=1e+06u l=2e+06u
X96 io p2 a_14800_n10720# vdda sky130_fd_pr__pfet_g5v0d10v5 ad=6e+11p pd=2.2e+06u as=6e+11p ps=2.2e+06u w=1e+06u l=2e+06u
X97 n s p1 vssa sky130_fd_pr__nfet_g5v0d10v5 ad=7.42857e+11p pd=3.2e+06u as=6.22222e+11p ps=2.35556e+06u w=1e+06u l=2e+06u
X98 vssa n a_10320_n4600# vssa sky130_fd_pr__nfet_g5v0d10v5 ad=8e+11p pd=3.6e+06u as=6e+11p ps=2.2e+06u w=1e+06u l=2e+06u
X99 a_n960_7640# a_n960_7640# vssa vssa sky130_fd_pr__nfet_g5v0d10v5 ad=8e+11p pd=3.6e+06u as=8e+11p ps=3.6e+06u w=1e+06u l=2e+06u
X100 p1 s n vssa sky130_fd_pr__nfet_g5v0d10v5 ad=6.22222e+11p pd=2.35556e+06u as=7.42857e+11p ps=3.2e+06u w=1e+06u l=2e+06u
X101 a_4560_n3480# p1 vdda vdda sky130_fd_pr__pfet_g5v0d10v5 ad=6e+11p pd=2.2e+06u as=7e+11p ps=2.9e+06u w=1e+06u l=2e+06u
X102 a_6160_6560# p2 vdda vdda sky130_fd_pr__pfet_g5v0d10v5 ad=6e+11p pd=2.2e+06u as=7e+11p ps=2.9e+06u w=1e+06u l=2e+06u
X103 vdda s a_4560_n11160# vdda sky130_fd_pr__pfet_g5v0d10v5 ad=7e+11p pd=2.9e+06u as=6e+11p ps=2.2e+06u w=1e+06u l=2e+06u
X104 a_11920_n760# y y vssa sky130_fd_pr__nfet_g5v0d10v5 ad=6e+11p pd=2.2e+06u as=8e+11p ps=3.6e+06u w=1e+06u l=2e+06u
X105 p1 s n vssa sky130_fd_pr__nfet_g5v0d10v5 ad=6.22222e+11p pd=2.35556e+06u as=7.42857e+11p ps=3.2e+06u w=1e+06u l=2e+06u
X106 a_12560_n10720# s a_11920_n10720# vdda sky130_fd_pr__pfet_g5v0d10v5 ad=6e+11p pd=2.2e+06u as=6e+11p ps=2.2e+06u w=1e+06u l=2e+06u
X107 vssa a_17120_n8440# a_17120_n8440# vssa sky130_fd_pr__nfet_g5v0d10v5 ad=8e+11p pd=3.6e+06u as=8e+11p ps=3.6e+06u w=1e+06u l=2e+06u
X108 a_6160_n7320# p2 vdda vdda sky130_fd_pr__pfet_g5v0d10v5 ad=6e+11p pd=2.2e+06u as=7e+11p ps=2.9e+06u w=1e+06u l=2e+06u
X109 a_13200_n4600# n a_12560_n4600# vssa sky130_fd_pr__nfet_g5v0d10v5 ad=6e+11p pd=2.2e+06u as=6e+11p ps=2.2e+06u w=1e+06u l=2e+06u
X110 vdda a_17120_n3480# a_17120_n3480# vdda sky130_fd_pr__pfet_g5v0d10v5 ad=7e+11p pd=2.9e+06u as=8e+11p ps=3.6e+06u w=1e+06u l=2e+06u
X111 a_9680_n6880# p2 a_9040_n6880# vdda sky130_fd_pr__pfet_g5v0d10v5 ad=6e+11p pd=2.2e+06u as=6e+11p ps=2.2e+06u w=1e+06u l=2e+06u
X112 p1 s n vssa sky130_fd_pr__nfet_g5v0d10v5 ad=6.22222e+11p pd=2.35556e+06u as=7.42857e+11p ps=3.2e+06u w=1e+06u l=2e+06u
X113 a_16720_n11160# p1 a_16080_n11160# vdda sky130_fd_pr__pfet_g5v0d10v5 ad=8e+11p pd=3.6e+06u as=6e+11p ps=2.2e+06u w=1e+06u l=2e+06u
X114 a_6800_n8440# n a_6160_n8440# vssa sky130_fd_pr__nfet_g5v0d10v5 ad=6e+11p pd=2.2e+06u as=6e+11p ps=2.2e+06u w=1e+06u l=2e+06u
X115 vdda s a_11920_10400# vdda sky130_fd_pr__pfet_g5v0d10v5 ad=7e+11p pd=2.9e+06u as=6e+11p ps=2.2e+06u w=1e+06u l=2e+06u
X116 a_6800_6560# p2 a_6160_6560# vdda sky130_fd_pr__pfet_g5v0d10v5 ad=6e+11p pd=2.2e+06u as=6e+11p ps=2.2e+06u w=1e+06u l=2e+06u
X117 a_16080_n10720# p2 io vdda sky130_fd_pr__pfet_g5v0d10v5 ad=6e+11p pd=2.2e+06u as=6e+11p ps=2.2e+06u w=1e+06u l=2e+06u
X118 vdda p1 a_6160_n3480# vdda sky130_fd_pr__pfet_g5v0d10v5 ad=7e+11p pd=2.9e+06u as=6e+11p ps=2.2e+06u w=1e+06u l=2e+06u
X119 a_400_n4600# y vssa vssa sky130_fd_pr__nfet_g5v0d10v5 ad=6e+11p pd=2.2e+06u as=8e+11p ps=3.6e+06u w=1e+06u l=2e+06u
X120 vssa n a_10320_n8440# vssa sky130_fd_pr__nfet_g5v0d10v5 ad=8e+11p pd=3.6e+06u as=6e+11p ps=2.2e+06u w=1e+06u l=2e+06u
X121 a_2320_n11160# p1 a_1680_n11160# vdda sky130_fd_pr__pfet_g5v0d10v5 ad=8e+11p pd=3.6e+06u as=6e+11p ps=2.2e+06u w=1e+06u l=2e+06u
X122 a_2320_6120# p0 a_1680_6560# vdda sky130_fd_pr__pfet_g5v0d10v5 ad=8e+11p pd=3.6e+06u as=6e+11p ps=2.2e+06u w=1e+06u l=2e+06u
X123 a_11920_n6880# p2 a_11360_n7320# vdda sky130_fd_pr__pfet_g5v0d10v5 ad=6e+11p pd=2.2e+06u as=8e+11p ps=3.6e+06u w=1e+06u l=2e+06u
X124 a_10960_n3480# p1 a_10320_n3480# vdda sky130_fd_pr__pfet_g5v0d10v5 ad=8e+11p pd=3.6e+06u as=6e+11p ps=2.2e+06u w=1e+06u l=2e+06u
X125 a_n960_6000# a_n960_6000# vdda vdda sky130_fd_pr__pfet_g5v0d10v5 ad=8e+11p pd=3.6e+06u as=7e+11p ps=2.9e+06u w=1e+06u l=2e+06u
X126 a_4560_n7320# p0 vdda vdda sky130_fd_pr__pfet_g5v0d10v5 ad=6e+11p pd=2.2e+06u as=7e+11p ps=2.9e+06u w=1e+06u l=2e+06u
X127 n s p1 vssa sky130_fd_pr__nfet_g5v0d10v5 ad=7.42857e+11p pd=3.2e+06u as=6.22222e+11p ps=2.35556e+06u w=1e+06u l=2e+06u
X128 vdda s a_13200_n11160# vdda sky130_fd_pr__pfet_g5v0d10v5 ad=7e+11p pd=2.9e+06u as=6e+11p ps=2.2e+06u w=1e+06u l=2e+06u
X129 n p2 a_9040_n3040# vdda sky130_fd_pr__pfet_g5v0d10v5 ad=6e+11p pd=2.2e+06u as=6e+11p ps=2.2e+06u w=1e+06u l=2e+06u
X130 a_14800_10400# p1 a_14240_9960# vdda sky130_fd_pr__pfet_g5v0d10v5 ad=6e+11p pd=2.2e+06u as=8e+11p ps=3.6e+06u w=1e+06u l=2e+06u
X131 a_16080_n6880# p2 p0 vdda sky130_fd_pr__pfet_g5v0d10v5 ad=6e+11p pd=2.2e+06u as=6e+11p ps=2.2e+06u w=1e+06u l=2e+06u
X132 a_13200_6560# p0 vdda vdda sky130_fd_pr__pfet_g5v0d10v5 ad=6e+11p pd=2.2e+06u as=7e+11p ps=2.9e+06u w=1e+06u l=2e+06u
X133 x x a_1680_0# vssa sky130_fd_pr__nfet_g5v0d10v5 ad=8e+11p pd=3.6e+06u as=6e+11p ps=2.2e+06u w=1e+06u l=2e+06u
X134 vdda a_17120_n7320# a_17120_n7320# vdda sky130_fd_pr__pfet_g5v0d10v5 ad=7e+11p pd=2.9e+06u as=8e+11p ps=3.6e+06u w=1e+06u l=2e+06u
X135 p1 s n vssa sky130_fd_pr__nfet_g5v0d10v5 ad=6.22222e+11p pd=2.35556e+06u as=7.42857e+11p ps=3.2e+06u w=1e+06u l=2e+06u
X136 a_8080_2280# p2 a_7440_2280# vdda sky130_fd_pr__pfet_g5v0d10v5 ad=8e+11p pd=3.6e+06u as=6e+11p ps=2.2e+06u w=1e+06u l=2e+06u
X137 a_5200_n7320# p2 a_4560_n6880# vdda sky130_fd_pr__pfet_g5v0d10v5 ad=8e+11p pd=3.6e+06u as=6e+11p ps=2.2e+06u w=1e+06u l=2e+06u
X138 a_13200_n3480# p1 vdda vdda sky130_fd_pr__pfet_g5v0d10v5 ad=6e+11p pd=2.2e+06u as=7e+11p ps=2.9e+06u w=1e+06u l=2e+06u
X139 a_3280_6560# p0 a_2720_6120# vdda sky130_fd_pr__pfet_g5v0d10v5 ad=6e+11p pd=2.2e+06u as=8e+11p ps=3.6e+06u w=1e+06u l=2e+06u
X140 p1 s n vssa sky130_fd_pr__nfet_g5v0d10v5 ad=6.22222e+11p pd=2.35556e+06u as=7.42857e+11p ps=3.2e+06u w=1e+06u l=2e+06u
X141 a_6800_n7320# p2 a_6160_n7320# vdda sky130_fd_pr__pfet_g5v0d10v5 ad=6e+11p pd=2.2e+06u as=6e+11p ps=2.2e+06u w=1e+06u l=2e+06u
X142 a_11920_n3040# p2 a_11360_n3480# vdda sky130_fd_pr__pfet_g5v0d10v5 ad=6e+11p pd=2.2e+06u as=8e+11p ps=3.6e+06u w=1e+06u l=2e+06u
X143 vdda s a_7440_9960# vdda sky130_fd_pr__pfet_g5v0d10v5 ad=7e+11p pd=2.9e+06u as=6e+11p ps=2.2e+06u w=1e+06u l=2e+06u
X144 p1 s n vssa sky130_fd_pr__nfet_g5v0d10v5 ad=6.22222e+11p pd=2.35556e+06u as=7.42857e+11p ps=3.2e+06u w=1e+06u l=2e+06u
X145 vdda s a_10320_n11160# vdda sky130_fd_pr__pfet_g5v0d10v5 ad=7e+11p pd=2.9e+06u as=6e+11p ps=2.2e+06u w=1e+06u l=2e+06u
X146 vdda p1 a_n160_n3480# vdda sky130_fd_pr__pfet_g5v0d10v5 ad=7e+11p pd=2.9e+06u as=8e+11p ps=3.6e+06u w=1e+06u l=2e+06u
X147 vdda p2 a_10320_n7320# vdda sky130_fd_pr__pfet_g5v0d10v5 ad=7e+11p pd=2.9e+06u as=6e+11p ps=2.2e+06u w=1e+06u l=2e+06u
X148 z x a_14800_0# vssa sky130_fd_pr__nfet_g5v0d10v5 ad=6e+11p pd=2.2e+06u as=6e+11p ps=2.2e+06u w=1e+06u l=2e+06u
X149 vssa n a_7440_3840# vssa sky130_fd_pr__nfet_g5v0d10v5 ad=8e+11p pd=3.6e+06u as=6e+11p ps=2.2e+06u w=1e+06u l=2e+06u
X150 a_1040_7680# s p1 vssa sky130_fd_pr__nfet_g5v0d10v5 ad=6e+11p pd=2.2e+06u as=6.22222e+11p ps=2.35556e+06u w=1e+06u l=2e+06u
X151 x p2 a_15440_n3480# vdda sky130_fd_pr__pfet_g5v0d10v5 ad=6e+11p pd=2.2e+06u as=6e+11p ps=2.2e+06u w=1e+06u l=2e+06u
X152 vdda p1 a_400_10400# vdda sky130_fd_pr__pfet_g5v0d10v5 ad=7e+11p pd=2.9e+06u as=6e+11p ps=2.2e+06u w=1e+06u l=2e+06u
X153 a_3280_10400# s vdda vdda sky130_fd_pr__pfet_g5v0d10v5 ad=6e+11p pd=2.2e+06u as=7e+11p ps=2.9e+06u w=1e+06u l=2e+06u
X154 a_9040_n4600# n vssa vssa sky130_fd_pr__nfet_g5v0d10v5 ad=6e+11p pd=2.2e+06u as=8e+11p ps=3.6e+06u w=1e+06u l=2e+06u
X155 a_n960_n7440# a_n960_n7440# vdda vdda sky130_fd_pr__pfet_g5v0d10v5 ad=8e+11p pd=3.6e+06u as=7e+11p ps=2.9e+06u w=1e+06u l=2e+06u
X156 vdda p0 a_3280_6560# vdda sky130_fd_pr__pfet_g5v0d10v5 ad=7e+11p pd=2.9e+06u as=6e+11p ps=2.2e+06u w=1e+06u l=2e+06u
X157 a_5200_n3480# p2 a_4560_n3040# vdda sky130_fd_pr__pfet_g5v0d10v5 ad=8e+11p pd=3.6e+06u as=6e+11p ps=2.2e+06u w=1e+06u l=2e+06u
X158 p2 p2 a_7440_6120# vdda sky130_fd_pr__pfet_g5v0d10v5 ad=8e+11p pd=3.6e+06u as=6e+11p ps=2.2e+06u w=1e+06u l=2e+06u
X159 a_13200_n7320# p0 vdda vdda sky130_fd_pr__pfet_g5v0d10v5 ad=6e+11p pd=2.2e+06u as=7e+11p ps=2.9e+06u w=1e+06u l=2e+06u
X160 a_n960_n40# a_n960_n40# vssa vssa sky130_fd_pr__nfet_g5v0d10v5 ad=8e+11p pd=3.6e+06u as=8e+11p ps=3.6e+06u w=1e+06u l=2e+06u
X161 a_16720_n7320# p2 a_16080_n6880# vdda sky130_fd_pr__pfet_g5v0d10v5 ad=8e+11p pd=3.6e+06u as=6e+11p ps=2.2e+06u w=1e+06u l=2e+06u
X162 p0 y a_1680_n4600# vssa sky130_fd_pr__nfet_g5v0d10v5 ad=8e+11p pd=3.6e+06u as=6e+11p ps=2.2e+06u w=1e+06u l=2e+06u
X163 a_14800_6560# p0 a_14240_6120# vdda sky130_fd_pr__pfet_g5v0d10v5 ad=6e+11p pd=2.2e+06u as=8e+11p ps=3.6e+06u w=1e+06u l=2e+06u
X164 a_1680_10400# p1 vdda vdda sky130_fd_pr__pfet_g5v0d10v5 ad=6e+11p pd=2.2e+06u as=7e+11p ps=2.9e+06u w=1e+06u l=2e+06u
X165 a_400_n7320# p0 a_n160_n7320# vdda sky130_fd_pr__pfet_g5v0d10v5 ad=6e+11p pd=2.2e+06u as=8e+11p ps=3.6e+06u w=1e+06u l=2e+06u
X166 a_7440_n4600# n p2 vssa sky130_fd_pr__nfet_g5v0d10v5 ad=6e+11p pd=2.2e+06u as=6e+11p ps=2.2e+06u w=1e+06u l=2e+06u
X167 x p2 a_n160_2280# vdda sky130_fd_pr__pfet_g5v0d10v5 ad=6e+11p pd=2.2e+06u as=8e+11p ps=3.6e+06u w=1e+06u l=2e+06u
X168 n p2 a_9040_2280# vdda sky130_fd_pr__pfet_g5v0d10v5 ad=6e+11p pd=2.2e+06u as=6e+11p ps=2.2e+06u w=1e+06u l=2e+06u
X169 a_n960_n3600# a_n960_n3600# vdda vdda sky130_fd_pr__pfet_g5v0d10v5 ad=8e+11p pd=3.6e+06u as=7e+11p ps=2.9e+06u w=1e+06u l=2e+06u
X170 a_8080_2280# p1 a_7440_2720# vdda sky130_fd_pr__pfet_g5v0d10v5 ad=8e+11p pd=3.6e+06u as=6e+11p ps=2.2e+06u w=1e+06u l=2e+06u
X171 a_400_9960# p2 a_n160_9960# vdda sky130_fd_pr__pfet_g5v0d10v5 ad=6e+11p pd=2.2e+06u as=8e+11p ps=3.6e+06u w=1e+06u l=2e+06u
X172 vdda p0 a_400_6560# vdda sky130_fd_pr__pfet_g5v0d10v5 ad=7e+11p pd=2.9e+06u as=6e+11p ps=2.2e+06u w=1e+06u l=2e+06u
X173 a_9680_9960# s a_9040_9960# vdda sky130_fd_pr__pfet_g5v0d10v5 ad=6e+11p pd=2.2e+06u as=6e+11p ps=2.2e+06u w=1e+06u l=2e+06u
X174 a_9040_n8440# n s vssa sky130_fd_pr__nfet_g5v0d10v5 ad=6e+11p pd=2.2e+06u as=8e+11p ps=3.6e+06u w=1e+06u l=2e+06u
X175 p1 s n vssa sky130_fd_pr__nfet_g5v0d10v5 ad=6.22222e+11p pd=2.35556e+06u as=7.42857e+11p ps=3.2e+06u w=1e+06u l=2e+06u
X176 a_400_3840# y vssa vssa sky130_fd_pr__nfet_g5v0d10v5 ad=6e+11p pd=2.2e+06u as=8e+11p ps=3.6e+06u w=1e+06u l=2e+06u
X177 a_9040_n3480# p1 a_8480_n3480# vdda sky130_fd_pr__pfet_g5v0d10v5 ad=6e+11p pd=2.2e+06u as=8e+11p ps=3.6e+06u w=1e+06u l=2e+06u
X178 p2 n a_9040_3840# vssa sky130_fd_pr__nfet_g5v0d10v5 ad=6e+11p pd=2.2e+06u as=6e+11p ps=2.2e+06u w=1e+06u l=2e+06u
X179 a_16720_n3480# p2 x vdda sky130_fd_pr__pfet_g5v0d10v5 ad=8e+11p pd=3.6e+06u as=6e+11p ps=2.2e+06u w=1e+06u l=2e+06u
X180 a_9040_n11160# s vdda vdda sky130_fd_pr__pfet_g5v0d10v5 ad=6e+11p pd=2.2e+06u as=7e+11p ps=2.9e+06u w=1e+06u l=2e+06u
X181 vdda s a_3280_10400# vdda sky130_fd_pr__pfet_g5v0d10v5 ad=7e+11p pd=2.9e+06u as=6e+11p ps=2.2e+06u w=1e+06u l=2e+06u
X182 x p2 a_15440_2280# vdda sky130_fd_pr__pfet_g5v0d10v5 ad=6e+11p pd=2.2e+06u as=6e+11p ps=2.2e+06u w=1e+06u l=2e+06u
X183 n s p1 vssa sky130_fd_pr__nfet_g5v0d10v5 ad=7.42857e+11p pd=3.2e+06u as=6.22222e+11p ps=2.35556e+06u w=1e+06u l=2e+06u
X184 n n a_7440_n760# vssa sky130_fd_pr__nfet_g5v0d10v5 ad=7.42857e+11p pd=3.2e+06u as=6e+11p ps=2.2e+06u w=1e+06u l=2e+06u
X185 vssa n a_13200_n4600# vssa sky130_fd_pr__nfet_g5v0d10v5 ad=8e+11p pd=3.6e+06u as=6e+11p ps=2.2e+06u w=1e+06u l=2e+06u
X186 a_2320_n3480# p1 vdda vdda sky130_fd_pr__pfet_g5v0d10v5 ad=8e+11p pd=3.6e+06u as=7e+11p ps=2.9e+06u w=1e+06u l=2e+06u
X187 a_16080_9960# p2 io vdda sky130_fd_pr__pfet_g5v0d10v5 ad=6e+11p pd=2.2e+06u as=6e+11p ps=2.2e+06u w=1e+06u l=2e+06u
X188 a_7440_n8440# n a_6800_n8440# vssa sky130_fd_pr__nfet_g5v0d10v5 ad=6e+11p pd=2.2e+06u as=6e+11p ps=2.2e+06u w=1e+06u l=2e+06u
X189 a_400_6120# p2 a_n160_6120# vdda sky130_fd_pr__pfet_g5v0d10v5 ad=6e+11p pd=2.2e+06u as=8e+11p ps=3.6e+06u w=1e+06u l=2e+06u
X190 vdda s a_7440_10400# vdda sky130_fd_pr__pfet_g5v0d10v5 ad=7e+11p pd=2.9e+06u as=6e+11p ps=2.2e+06u w=1e+06u l=2e+06u
X191 a_7440_n3480# p1 vdda vdda sky130_fd_pr__pfet_g5v0d10v5 ad=6e+11p pd=2.2e+06u as=7e+11p ps=2.9e+06u w=1e+06u l=2e+06u
X192 a_9680_6120# p2 a_9040_6120# vdda sky130_fd_pr__pfet_g5v0d10v5 ad=6e+11p pd=2.2e+06u as=6e+11p ps=2.2e+06u w=1e+06u l=2e+06u
X193 a_16080_3840# y a_15440_3840# vssa sky130_fd_pr__nfet_g5v0d10v5 ad=6e+11p pd=2.2e+06u as=6e+11p ps=2.2e+06u w=1e+06u l=2e+06u
X194 p1 p2 a_11920_n6880# vdda sky130_fd_pr__pfet_g5v0d10v5 ad=6e+11p pd=2.2e+06u as=6e+11p ps=2.2e+06u w=1e+06u l=2e+06u
X195 a_6160_n11160# s vdda vdda sky130_fd_pr__pfet_g5v0d10v5 ad=6e+11p pd=2.2e+06u as=7e+11p ps=2.9e+06u w=1e+06u l=2e+06u
X196 a_9680_n10720# s a_9040_n10720# vdda sky130_fd_pr__pfet_g5v0d10v5 ad=6e+11p pd=2.2e+06u as=6e+11p ps=2.2e+06u w=1e+06u l=2e+06u
X197 a_16720_2280# p2 x vdda sky130_fd_pr__pfet_g5v0d10v5 ad=8e+11p pd=3.6e+06u as=6e+11p ps=2.2e+06u w=1e+06u l=2e+06u
X198 a_9040_n7320# p2 p2 vdda sky130_fd_pr__pfet_g5v0d10v5 ad=6e+11p pd=2.2e+06u as=8e+11p ps=3.6e+06u w=1e+06u l=2e+06u
X199 a_6800_0# n a_6160_0# vssa sky130_fd_pr__nfet_g5v0d10v5 ad=6e+11p pd=2.2e+06u as=6e+11p ps=2.2e+06u w=1e+06u l=2e+06u
X200 a_11920_6560# p0 a_11360_6120# vdda sky130_fd_pr__pfet_g5v0d10v5 ad=6e+11p pd=2.2e+06u as=8e+11p ps=3.6e+06u w=1e+06u l=2e+06u
X201 a_14800_n10720# p2 a_14240_n11160# vdda sky130_fd_pr__pfet_g5v0d10v5 ad=6e+11p pd=2.2e+06u as=8e+11p ps=3.6e+06u w=1e+06u l=2e+06u
X202 vdda p1 a_n160_2280# vdda sky130_fd_pr__pfet_g5v0d10v5 ad=7e+11p pd=2.9e+06u as=8e+11p ps=3.6e+06u w=1e+06u l=2e+06u
X203 a_16720_9960# p2 a_16080_9960# vdda sky130_fd_pr__pfet_g5v0d10v5 ad=8e+11p pd=3.6e+06u as=6e+11p ps=2.2e+06u w=1e+06u l=2e+06u
X204 vdda p1 a_9040_2720# vdda sky130_fd_pr__pfet_g5v0d10v5 ad=7e+11p pd=2.9e+06u as=6e+11p ps=2.2e+06u w=1e+06u l=2e+06u
X205 vdda p1 a_14800_10400# vdda sky130_fd_pr__pfet_g5v0d10v5 ad=7e+11p pd=2.9e+06u as=6e+11p ps=2.2e+06u w=1e+06u l=2e+06u
X206 vdda a_17120_n11160# a_17120_n11160# vdda sky130_fd_pr__pfet_g5v0d10v5 ad=7e+11p pd=2.9e+06u as=8e+11p ps=3.6e+06u w=1e+06u l=2e+06u
X207 a_10320_10400# s a_9680_10400# vdda sky130_fd_pr__pfet_g5v0d10v5 ad=6e+11p pd=2.2e+06u as=6e+11p ps=2.2e+06u w=1e+06u l=2e+06u
X208 a_16080_6120# p2 p0 vdda sky130_fd_pr__pfet_g5v0d10v5 ad=6e+11p pd=2.2e+06u as=6e+11p ps=2.2e+06u w=1e+06u l=2e+06u
X209 vssa y a_16080_3840# vssa sky130_fd_pr__nfet_g5v0d10v5 ad=8e+11p pd=3.6e+06u as=6e+11p ps=2.2e+06u w=1e+06u l=2e+06u
X210 n s p1 vssa sky130_fd_pr__nfet_g5v0d10v5 ad=7.42857e+11p pd=3.2e+06u as=6.22222e+11p ps=2.35556e+06u w=1e+06u l=2e+06u
X211 a_7440_n11160# s a_6800_n11160# vdda sky130_fd_pr__pfet_g5v0d10v5 ad=6e+11p pd=2.2e+06u as=6e+11p ps=2.2e+06u w=1e+06u l=2e+06u
X212 a_2320_n7320# p0 a_1680_n7320# vdda sky130_fd_pr__pfet_g5v0d10v5 ad=8e+11p pd=3.6e+06u as=6e+11p ps=2.2e+06u w=1e+06u l=2e+06u
X213 a_3280_n11160# s vdda vdda sky130_fd_pr__pfet_g5v0d10v5 ad=6e+11p pd=2.2e+06u as=7e+11p ps=2.9e+06u w=1e+06u l=2e+06u
X214 a_14800_n6880# p2 a_14240_n7320# vdda sky130_fd_pr__pfet_g5v0d10v5 ad=6e+11p pd=2.2e+06u as=8e+11p ps=3.6e+06u w=1e+06u l=2e+06u
X215 a_13840_n3480# p1 a_13200_n3480# vdda sky130_fd_pr__pfet_g5v0d10v5 ad=8e+11p pd=3.6e+06u as=6e+11p ps=2.2e+06u w=1e+06u l=2e+06u
X216 a_7440_n7320# p2 a_6800_n7320# vdda sky130_fd_pr__pfet_g5v0d10v5 ad=6e+11p pd=2.2e+06u as=6e+11p ps=2.2e+06u w=1e+06u l=2e+06u
X217 y p2 a_11920_n3040# vdda sky130_fd_pr__pfet_g5v0d10v5 ad=6e+11p pd=2.2e+06u as=6e+11p ps=2.2e+06u w=1e+06u l=2e+06u
X218 a_11920_n10720# s vdda vdda sky130_fd_pr__pfet_g5v0d10v5 ad=6e+11p pd=2.2e+06u as=7e+11p ps=2.9e+06u w=1e+06u l=2e+06u
X219 a_400_n760# x vssa vssa sky130_fd_pr__nfet_g5v0d10v5 ad=6e+11p pd=2.2e+06u as=8e+11p ps=3.6e+06u w=1e+06u l=2e+06u
X220 z y a_11920_0# vssa sky130_fd_pr__nfet_g5v0d10v5 ad=6e+11p pd=2.2e+06u as=6e+11p ps=2.2e+06u w=1e+06u l=2e+06u
X221 vssa a_17120_0# a_17120_0# vssa sky130_fd_pr__nfet_g5v0d10v5 ad=8e+11p pd=3.6e+06u as=8e+11p ps=3.6e+06u w=1e+06u l=2e+06u
X222 vdda a_17120_2280# a_17120_2280# vdda sky130_fd_pr__pfet_g5v0d10v5 ad=7e+11p pd=2.9e+06u as=8e+11p ps=3.6e+06u w=1e+06u l=2e+06u
X223 a_9680_n760# n a_9040_n760# vssa sky130_fd_pr__nfet_g5v0d10v5 ad=6e+11p pd=2.2e+06u as=6e+11p ps=2.2e+06u w=1e+06u l=2e+06u
X224 vdda p1 a_15440_2280# vdda sky130_fd_pr__pfet_g5v0d10v5 ad=7e+11p pd=2.9e+06u as=6e+11p ps=2.2e+06u w=1e+06u l=2e+06u
X225 vdda p1 a_400_n11160# vdda sky130_fd_pr__pfet_g5v0d10v5 ad=7e+11p pd=2.9e+06u as=6e+11p ps=2.2e+06u w=1e+06u l=2e+06u
X226 a_7440_2280# p2 n vdda sky130_fd_pr__pfet_g5v0d10v5 ad=6e+11p pd=2.2e+06u as=6e+11p ps=2.2e+06u w=1e+06u l=2e+06u
X227 vdda a_17120_9960# a_17120_9960# vdda sky130_fd_pr__pfet_g5v0d10v5 ad=7e+11p pd=2.9e+06u as=8e+11p ps=3.6e+06u w=1e+06u l=2e+06u
X228 a_16720_6120# p2 a_16080_6120# vdda sky130_fd_pr__pfet_g5v0d10v5 ad=8e+11p pd=3.6e+06u as=6e+11p ps=2.2e+06u w=1e+06u l=2e+06u
X229 a_7440_9960# s a_6800_9960# vdda sky130_fd_pr__pfet_g5v0d10v5 ad=6e+11p pd=2.2e+06u as=6e+11p ps=2.2e+06u w=1e+06u l=2e+06u
X230 a_4560_n11160# s vdda vdda sky130_fd_pr__pfet_g5v0d10v5 ad=6e+11p pd=2.2e+06u as=7e+11p ps=2.9e+06u w=1e+06u l=2e+06u
X231 a_n960_n11280# a_n960_n11280# vdda vdda sky130_fd_pr__pfet_g5v0d10v5 ad=8e+11p pd=3.6e+06u as=7e+11p ps=2.9e+06u w=1e+06u l=2e+06u
X232 vssa a_17120_3840# a_17120_3840# vssa sky130_fd_pr__nfet_g5v0d10v5 ad=8e+11p pd=3.6e+06u as=8e+11p ps=3.6e+06u w=1e+06u l=2e+06u
X233 p2 n a_9040_n4600# vssa sky130_fd_pr__nfet_g5v0d10v5 ad=6e+11p pd=2.2e+06u as=6e+11p ps=2.2e+06u w=1e+06u l=2e+06u
X234 a_10320_2280# p2 n vdda sky130_fd_pr__pfet_g5v0d10v5 ad=6e+11p pd=2.2e+06u as=6e+11p ps=2.2e+06u w=1e+06u l=2e+06u
X235 a_7440_3840# n p2 vssa sky130_fd_pr__nfet_g5v0d10v5 ad=6e+11p pd=2.2e+06u as=6e+11p ps=2.2e+06u w=1e+06u l=2e+06u
X236 vdda s a_4560_n10720# vdda sky130_fd_pr__pfet_g5v0d10v5 ad=7e+11p pd=2.9e+06u as=6e+11p ps=2.2e+06u w=1e+06u l=2e+06u
X237 x p2 a_14240_n3480# vdda sky130_fd_pr__pfet_g5v0d10v5 ad=6e+11p pd=2.2e+06u as=8e+11p ps=3.6e+06u w=1e+06u l=2e+06u
X238 p0 p2 a_400_n6880# vdda sky130_fd_pr__pfet_g5v0d10v5 ad=6e+11p pd=2.2e+06u as=6e+11p ps=2.2e+06u w=1e+06u l=2e+06u